---------- Begin Simulation Statistics ----------
sim_seconds                                  0.006149                       # Number of seconds simulated
sim_ticks                                  6148680000                       # Number of ticks simulated
final_tick                               5677020504000                       # Number of ticks from beginning of simulation (restored from checkpoints and never reset)
sim_freq                                 1000000000000                       # Frequency of simulated ticks
host_inst_rate                                 352687                       # Simulator instruction rate (inst/s)
host_op_rate                                  1005230                       # Simulator op (including micro ops) rate (op/s)
host_tick_rate                                7332565                       # Simulator tick rate (ticks/s)
host_mem_usage                                6709396                       # Number of bytes of host memory used
host_seconds                                   838.54                       # Real time elapsed on the host
sim_insts                                   295743510                       # Number of instructions simulated
sim_ops                                     842929334                       # Number of ops (including micro ops) simulated
system.voltage_domain.voltage                       1                       # Voltage in Volts
system.clk_domain.clock                          1000                       # Clock period in ticks
system.mem_ctrls.bytes_read::gpu.shader_mmu.pagewalkers00.walker       433536                       # Number of bytes read from this memory
system.mem_ctrls.bytes_read::gpu.shader_mmu.pagewalkers01.walker       325312                       # Number of bytes read from this memory
system.mem_ctrls.bytes_read::gpu.shader_mmu.pagewalkers02.walker       226368                       # Number of bytes read from this memory
system.mem_ctrls.bytes_read::gpu.shader_mmu.pagewalkers03.walker        69888                       # Number of bytes read from this memory
system.mem_ctrls.bytes_read::gpu.shader_mmu.pagewalkers04.walker        53632                       # Number of bytes read from this memory
system.mem_ctrls.bytes_read::gpu.shader_mmu.pagewalkers05.walker        42144                       # Number of bytes read from this memory
system.mem_ctrls.bytes_read::gpu.shader_mmu.pagewalkers06.walker        40032                       # Number of bytes read from this memory
system.mem_ctrls.bytes_read::gpu.shader_mmu.pagewalkers07.walker        37312                       # Number of bytes read from this memory
system.mem_ctrls.bytes_read::gpu.shader_mmu.pagewalkers08.walker        37120                       # Number of bytes read from this memory
system.mem_ctrls.bytes_read::gpu.shader_mmu.pagewalkers09.walker        36448                       # Number of bytes read from this memory
system.mem_ctrls.bytes_read::gpu.shader_mmu.pagewalkers10.walker        35520                       # Number of bytes read from this memory
system.mem_ctrls.bytes_read::gpu.shader_mmu.pagewalkers11.walker        34784                       # Number of bytes read from this memory
system.mem_ctrls.bytes_read::gpu.shader_mmu.pagewalkers12.walker        34656                       # Number of bytes read from this memory
system.mem_ctrls.bytes_read::gpu.shader_mmu.pagewalkers13.walker        34944                       # Number of bytes read from this memory
system.mem_ctrls.bytes_read::gpu.shader_mmu.pagewalkers14.walker        34272                       # Number of bytes read from this memory
system.mem_ctrls.bytes_read::gpu.shader_mmu.pagewalkers15.walker        33824                       # Number of bytes read from this memory
system.mem_ctrls.bytes_read::gpu.shader_mmu.pagewalkers16.walker        30272                       # Number of bytes read from this memory
system.mem_ctrls.bytes_read::gpu.shader_mmu.pagewalkers17.walker        29632                       # Number of bytes read from this memory
system.mem_ctrls.bytes_read::gpu.shader_mmu.pagewalkers18.walker        28128                       # Number of bytes read from this memory
system.mem_ctrls.bytes_read::gpu.shader_mmu.pagewalkers19.walker        28096                       # Number of bytes read from this memory
system.mem_ctrls.bytes_read::gpu.shader_mmu.pagewalkers20.walker        28064                       # Number of bytes read from this memory
system.mem_ctrls.bytes_read::gpu.shader_mmu.pagewalkers21.walker        26816                       # Number of bytes read from this memory
system.mem_ctrls.bytes_read::gpu.shader_mmu.pagewalkers22.walker        27776                       # Number of bytes read from this memory
system.mem_ctrls.bytes_read::gpu.shader_mmu.pagewalkers23.walker        26784                       # Number of bytes read from this memory
system.mem_ctrls.bytes_read::gpu.shader_mmu.pagewalkers24.walker        27168                       # Number of bytes read from this memory
system.mem_ctrls.bytes_read::gpu.shader_mmu.pagewalkers25.walker        28320                       # Number of bytes read from this memory
system.mem_ctrls.bytes_read::gpu.shader_mmu.pagewalkers26.walker        26976                       # Number of bytes read from this memory
system.mem_ctrls.bytes_read::gpu.shader_mmu.pagewalkers27.walker        26944                       # Number of bytes read from this memory
system.mem_ctrls.bytes_read::gpu.shader_mmu.pagewalkers28.walker        26080                       # Number of bytes read from this memory
system.mem_ctrls.bytes_read::gpu.shader_mmu.pagewalkers29.walker        27328                       # Number of bytes read from this memory
system.mem_ctrls.bytes_read::gpu.shader_mmu.pagewalkers30.walker        25952                       # Number of bytes read from this memory
system.mem_ctrls.bytes_read::gpu.shader_mmu.pagewalkers31.walker        25824                       # Number of bytes read from this memory
system.mem_ctrls.bytes_read::gpu.shader_cores00.data       243392                       # Number of bytes read from this memory
system.mem_ctrls.bytes_read::gpu.shader_cores00.inst          840                       # Number of bytes read from this memory
system.mem_ctrls.bytes_read::gpu.shader_cores01.data       245664                       # Number of bytes read from this memory
system.mem_ctrls.bytes_read::gpu.shader_cores01.inst          840                       # Number of bytes read from this memory
system.mem_ctrls.bytes_read::gpu.shader_cores02.data       245440                       # Number of bytes read from this memory
system.mem_ctrls.bytes_read::gpu.shader_cores02.inst          840                       # Number of bytes read from this memory
system.mem_ctrls.bytes_read::gpu.shader_cores03.data       245440                       # Number of bytes read from this memory
system.mem_ctrls.bytes_read::gpu.shader_cores03.inst          840                       # Number of bytes read from this memory
system.mem_ctrls.bytes_read::gpu.shader_cores04.data       245664                       # Number of bytes read from this memory
system.mem_ctrls.bytes_read::gpu.shader_cores04.inst          840                       # Number of bytes read from this memory
system.mem_ctrls.bytes_read::gpu.shader_cores05.data       245664                       # Number of bytes read from this memory
system.mem_ctrls.bytes_read::gpu.shader_cores05.inst          840                       # Number of bytes read from this memory
system.mem_ctrls.bytes_read::gpu.shader_cores06.data       245664                       # Number of bytes read from this memory
system.mem_ctrls.bytes_read::gpu.shader_cores06.inst          840                       # Number of bytes read from this memory
system.mem_ctrls.bytes_read::gpu.shader_cores07.data       245216                       # Number of bytes read from this memory
system.mem_ctrls.bytes_read::gpu.shader_cores07.inst          840                       # Number of bytes read from this memory
system.mem_ctrls.bytes_read::gpu.shader_cores08.data       245216                       # Number of bytes read from this memory
system.mem_ctrls.bytes_read::gpu.shader_cores08.inst          840                       # Number of bytes read from this memory
system.mem_ctrls.bytes_read::gpu.shader_cores09.data       245216                       # Number of bytes read from this memory
system.mem_ctrls.bytes_read::gpu.shader_cores09.inst          840                       # Number of bytes read from this memory
system.mem_ctrls.bytes_read::gpu.shader_cores10.data       245216                       # Number of bytes read from this memory
system.mem_ctrls.bytes_read::gpu.shader_cores10.inst          840                       # Number of bytes read from this memory
system.mem_ctrls.bytes_read::gpu.shader_cores11.data       245664                       # Number of bytes read from this memory
system.mem_ctrls.bytes_read::gpu.shader_cores11.inst          840                       # Number of bytes read from this memory
system.mem_ctrls.bytes_read::gpu.shader_cores12.data       245664                       # Number of bytes read from this memory
system.mem_ctrls.bytes_read::gpu.shader_cores12.inst          840                       # Number of bytes read from this memory
system.mem_ctrls.bytes_read::gpu.shader_cores13.data       245664                       # Number of bytes read from this memory
system.mem_ctrls.bytes_read::gpu.shader_cores13.inst          840                       # Number of bytes read from this memory
system.mem_ctrls.bytes_read::gpu.shader_cores14.data       245440                       # Number of bytes read from this memory
system.mem_ctrls.bytes_read::gpu.shader_cores14.inst          840                       # Number of bytes read from this memory
system.mem_ctrls.bytes_read::gpu.shader_cores15.data       245440                       # Number of bytes read from this memory
system.mem_ctrls.bytes_read::gpu.shader_cores15.inst          840                       # Number of bytes read from this memory
system.mem_ctrls.bytes_read::gpu.shader_cores16.data       245664                       # Number of bytes read from this memory
system.mem_ctrls.bytes_read::gpu.shader_cores16.inst          840                       # Number of bytes read from this memory
system.mem_ctrls.bytes_read::gpu.shader_cores17.data       243392                       # Number of bytes read from this memory
system.mem_ctrls.bytes_read::gpu.shader_cores17.inst          840                       # Number of bytes read from this memory
system.mem_ctrls.bytes_read::gpu.shader_cores18.data       243392                       # Number of bytes read from this memory
system.mem_ctrls.bytes_read::gpu.shader_cores18.inst          840                       # Number of bytes read from this memory
system.mem_ctrls.bytes_read::gpu.shader_cores19.data       243168                       # Number of bytes read from this memory
system.mem_ctrls.bytes_read::gpu.shader_cores19.inst          840                       # Number of bytes read from this memory
system.mem_ctrls.bytes_read::gpu.shader_cores20.data       243168                       # Number of bytes read from this memory
system.mem_ctrls.bytes_read::gpu.shader_cores20.inst          840                       # Number of bytes read from this memory
system.mem_ctrls.bytes_read::gpu.shader_cores21.data       242944                       # Number of bytes read from this memory
system.mem_ctrls.bytes_read::gpu.shader_cores21.inst          840                       # Number of bytes read from this memory
system.mem_ctrls.bytes_read::gpu.shader_cores22.data       243168                       # Number of bytes read from this memory
system.mem_ctrls.bytes_read::gpu.shader_cores22.inst          840                       # Number of bytes read from this memory
system.mem_ctrls.bytes_read::gpu.shader_cores23.data       243168                       # Number of bytes read from this memory
system.mem_ctrls.bytes_read::gpu.shader_cores23.inst          840                       # Number of bytes read from this memory
system.mem_ctrls.bytes_read::gpu.shader_cores24.data       243168                       # Number of bytes read from this memory
system.mem_ctrls.bytes_read::gpu.shader_cores24.inst          840                       # Number of bytes read from this memory
system.mem_ctrls.bytes_read::gpu.shader_cores25.data       243168                       # Number of bytes read from this memory
system.mem_ctrls.bytes_read::gpu.shader_cores25.inst          840                       # Number of bytes read from this memory
system.mem_ctrls.bytes_read::gpu.shader_cores26.data       243392                       # Number of bytes read from this memory
system.mem_ctrls.bytes_read::gpu.shader_cores26.inst          840                       # Number of bytes read from this memory
system.mem_ctrls.bytes_read::gpu.shader_cores27.data       243168                       # Number of bytes read from this memory
system.mem_ctrls.bytes_read::gpu.shader_cores27.inst          840                       # Number of bytes read from this memory
system.mem_ctrls.bytes_read::gpu.shader_cores28.data       243168                       # Number of bytes read from this memory
system.mem_ctrls.bytes_read::gpu.shader_cores28.inst          840                       # Number of bytes read from this memory
system.mem_ctrls.bytes_read::gpu.shader_cores29.data       243168                       # Number of bytes read from this memory
system.mem_ctrls.bytes_read::gpu.shader_cores29.inst          840                       # Number of bytes read from this memory
system.mem_ctrls.bytes_read::gpu.shader_cores30.data       243168                       # Number of bytes read from this memory
system.mem_ctrls.bytes_read::gpu.shader_cores30.inst          840                       # Number of bytes read from this memory
system.mem_ctrls.bytes_read::gpu.shader_cores31.data       243392                       # Number of bytes read from this memory
system.mem_ctrls.bytes_read::gpu.shader_cores31.inst          840                       # Number of bytes read from this memory
system.mem_ctrls.bytes_read::gpu.shader_cores32.data       243168                       # Number of bytes read from this memory
system.mem_ctrls.bytes_read::gpu.shader_cores32.inst          840                       # Number of bytes read from this memory
system.mem_ctrls.bytes_read::gpu.shader_cores33.data       243168                       # Number of bytes read from this memory
system.mem_ctrls.bytes_read::gpu.shader_cores33.inst          840                       # Number of bytes read from this memory
system.mem_ctrls.bytes_read::gpu.shader_cores34.data       243168                       # Number of bytes read from this memory
system.mem_ctrls.bytes_read::gpu.shader_cores34.inst          840                       # Number of bytes read from this memory
system.mem_ctrls.bytes_read::gpu.shader_cores35.data       243168                       # Number of bytes read from this memory
system.mem_ctrls.bytes_read::gpu.shader_cores35.inst          840                       # Number of bytes read from this memory
system.mem_ctrls.bytes_read::gpu.shader_cores36.data       242944                       # Number of bytes read from this memory
system.mem_ctrls.bytes_read::gpu.shader_cores36.inst          840                       # Number of bytes read from this memory
system.mem_ctrls.bytes_read::gpu.shader_cores37.data       243168                       # Number of bytes read from this memory
system.mem_ctrls.bytes_read::gpu.shader_cores37.inst          840                       # Number of bytes read from this memory
system.mem_ctrls.bytes_read::gpu.shader_cores38.data       243168                       # Number of bytes read from this memory
system.mem_ctrls.bytes_read::gpu.shader_cores38.inst          840                       # Number of bytes read from this memory
system.mem_ctrls.bytes_read::gpu.shader_cores39.data       243392                       # Number of bytes read from this memory
system.mem_ctrls.bytes_read::gpu.shader_cores39.inst          840                       # Number of bytes read from this memory
system.mem_ctrls.bytes_read::cpu0.inst          84448                       # Number of bytes read from this memory
system.mem_ctrls.bytes_read::cpu0.data          15634                       # Number of bytes read from this memory
system.mem_ctrls.bytes_read::cpu1.inst          40032                       # Number of bytes read from this memory
system.mem_ctrls.bytes_read::cpu1.data           7336                       # Number of bytes read from this memory
system.mem_ctrls.bytes_read::cpu2.inst         103232                       # Number of bytes read from this memory
system.mem_ctrls.bytes_read::cpu2.data          18882                       # Number of bytes read from this memory
system.mem_ctrls.bytes_read::cpu3.inst          39352                       # Number of bytes read from this memory
system.mem_ctrls.bytes_read::cpu3.data           7319                       # Number of bytes read from this memory
system.mem_ctrls.bytes_read::cpu4.inst          40120                       # Number of bytes read from this memory
system.mem_ctrls.bytes_read::cpu4.data           7458                       # Number of bytes read from this memory
system.mem_ctrls.bytes_read::cpu5.inst          34776                       # Number of bytes read from this memory
system.mem_ctrls.bytes_read::cpu5.data           6333                       # Number of bytes read from this memory
system.mem_ctrls.bytes_read::cpu6.dtb.walker         1200                       # Number of bytes read from this memory
system.mem_ctrls.bytes_read::cpu6.inst       13110976                       # Number of bytes read from this memory
system.mem_ctrls.bytes_read::cpu6.data        1793611                       # Number of bytes read from this memory
system.mem_ctrls.bytes_read::cpu7.inst          96032                       # Number of bytes read from this memory
system.mem_ctrls.bytes_read::cpu7.data          17606                       # Number of bytes read from this memory
system.mem_ctrls.bytes_read::total           27172763                       # Number of bytes read from this memory
system.mem_ctrls.bytes_inst_read::gpu.shader_cores00.inst          840                       # Number of instructions bytes read from this memory
system.mem_ctrls.bytes_inst_read::gpu.shader_cores01.inst          840                       # Number of instructions bytes read from this memory
system.mem_ctrls.bytes_inst_read::gpu.shader_cores02.inst          840                       # Number of instructions bytes read from this memory
system.mem_ctrls.bytes_inst_read::gpu.shader_cores03.inst          840                       # Number of instructions bytes read from this memory
system.mem_ctrls.bytes_inst_read::gpu.shader_cores04.inst          840                       # Number of instructions bytes read from this memory
system.mem_ctrls.bytes_inst_read::gpu.shader_cores05.inst          840                       # Number of instructions bytes read from this memory
system.mem_ctrls.bytes_inst_read::gpu.shader_cores06.inst          840                       # Number of instructions bytes read from this memory
system.mem_ctrls.bytes_inst_read::gpu.shader_cores07.inst          840                       # Number of instructions bytes read from this memory
system.mem_ctrls.bytes_inst_read::gpu.shader_cores08.inst          840                       # Number of instructions bytes read from this memory
system.mem_ctrls.bytes_inst_read::gpu.shader_cores09.inst          840                       # Number of instructions bytes read from this memory
system.mem_ctrls.bytes_inst_read::gpu.shader_cores10.inst          840                       # Number of instructions bytes read from this memory
system.mem_ctrls.bytes_inst_read::gpu.shader_cores11.inst          840                       # Number of instructions bytes read from this memory
system.mem_ctrls.bytes_inst_read::gpu.shader_cores12.inst          840                       # Number of instructions bytes read from this memory
system.mem_ctrls.bytes_inst_read::gpu.shader_cores13.inst          840                       # Number of instructions bytes read from this memory
system.mem_ctrls.bytes_inst_read::gpu.shader_cores14.inst          840                       # Number of instructions bytes read from this memory
system.mem_ctrls.bytes_inst_read::gpu.shader_cores15.inst          840                       # Number of instructions bytes read from this memory
system.mem_ctrls.bytes_inst_read::gpu.shader_cores16.inst          840                       # Number of instructions bytes read from this memory
system.mem_ctrls.bytes_inst_read::gpu.shader_cores17.inst          840                       # Number of instructions bytes read from this memory
system.mem_ctrls.bytes_inst_read::gpu.shader_cores18.inst          840                       # Number of instructions bytes read from this memory
system.mem_ctrls.bytes_inst_read::gpu.shader_cores19.inst          840                       # Number of instructions bytes read from this memory
system.mem_ctrls.bytes_inst_read::gpu.shader_cores20.inst          840                       # Number of instructions bytes read from this memory
system.mem_ctrls.bytes_inst_read::gpu.shader_cores21.inst          840                       # Number of instructions bytes read from this memory
system.mem_ctrls.bytes_inst_read::gpu.shader_cores22.inst          840                       # Number of instructions bytes read from this memory
system.mem_ctrls.bytes_inst_read::gpu.shader_cores23.inst          840                       # Number of instructions bytes read from this memory
system.mem_ctrls.bytes_inst_read::gpu.shader_cores24.inst          840                       # Number of instructions bytes read from this memory
system.mem_ctrls.bytes_inst_read::gpu.shader_cores25.inst          840                       # Number of instructions bytes read from this memory
system.mem_ctrls.bytes_inst_read::gpu.shader_cores26.inst          840                       # Number of instructions bytes read from this memory
system.mem_ctrls.bytes_inst_read::gpu.shader_cores27.inst          840                       # Number of instructions bytes read from this memory
system.mem_ctrls.bytes_inst_read::gpu.shader_cores28.inst          840                       # Number of instructions bytes read from this memory
system.mem_ctrls.bytes_inst_read::gpu.shader_cores29.inst          840                       # Number of instructions bytes read from this memory
system.mem_ctrls.bytes_inst_read::gpu.shader_cores30.inst          840                       # Number of instructions bytes read from this memory
system.mem_ctrls.bytes_inst_read::gpu.shader_cores31.inst          840                       # Number of instructions bytes read from this memory
system.mem_ctrls.bytes_inst_read::gpu.shader_cores32.inst          840                       # Number of instructions bytes read from this memory
system.mem_ctrls.bytes_inst_read::gpu.shader_cores33.inst          840                       # Number of instructions bytes read from this memory
system.mem_ctrls.bytes_inst_read::gpu.shader_cores34.inst          840                       # Number of instructions bytes read from this memory
system.mem_ctrls.bytes_inst_read::gpu.shader_cores35.inst          840                       # Number of instructions bytes read from this memory
system.mem_ctrls.bytes_inst_read::gpu.shader_cores36.inst          840                       # Number of instructions bytes read from this memory
system.mem_ctrls.bytes_inst_read::gpu.shader_cores37.inst          840                       # Number of instructions bytes read from this memory
system.mem_ctrls.bytes_inst_read::gpu.shader_cores38.inst          840                       # Number of instructions bytes read from this memory
system.mem_ctrls.bytes_inst_read::gpu.shader_cores39.inst          840                       # Number of instructions bytes read from this memory
system.mem_ctrls.bytes_inst_read::cpu0.inst        84448                       # Number of instructions bytes read from this memory
system.mem_ctrls.bytes_inst_read::cpu1.inst        40032                       # Number of instructions bytes read from this memory
system.mem_ctrls.bytes_inst_read::cpu2.inst       103232                       # Number of instructions bytes read from this memory
system.mem_ctrls.bytes_inst_read::cpu3.inst        39352                       # Number of instructions bytes read from this memory
system.mem_ctrls.bytes_inst_read::cpu4.inst        40120                       # Number of instructions bytes read from this memory
system.mem_ctrls.bytes_inst_read::cpu5.inst        34776                       # Number of instructions bytes read from this memory
system.mem_ctrls.bytes_inst_read::cpu6.inst     13110976                       # Number of instructions bytes read from this memory
system.mem_ctrls.bytes_inst_read::cpu7.inst        96032                       # Number of instructions bytes read from this memory
system.mem_ctrls.bytes_inst_read::total      13582568                       # Number of instructions bytes read from this memory
system.mem_ctrls.bytes_written::gpu.shader_cores00.data       104448                       # Number of bytes written to this memory
system.mem_ctrls.bytes_written::gpu.shader_cores01.data       105472                       # Number of bytes written to this memory
system.mem_ctrls.bytes_written::gpu.shader_cores02.data       105472                       # Number of bytes written to this memory
system.mem_ctrls.bytes_written::gpu.shader_cores03.data       105472                       # Number of bytes written to this memory
system.mem_ctrls.bytes_written::gpu.shader_cores04.data       105472                       # Number of bytes written to this memory
system.mem_ctrls.bytes_written::gpu.shader_cores05.data       105472                       # Number of bytes written to this memory
system.mem_ctrls.bytes_written::gpu.shader_cores06.data       105472                       # Number of bytes written to this memory
system.mem_ctrls.bytes_written::gpu.shader_cores07.data       105472                       # Number of bytes written to this memory
system.mem_ctrls.bytes_written::gpu.shader_cores08.data       105472                       # Number of bytes written to this memory
system.mem_ctrls.bytes_written::gpu.shader_cores09.data       105472                       # Number of bytes written to this memory
system.mem_ctrls.bytes_written::gpu.shader_cores10.data       105472                       # Number of bytes written to this memory
system.mem_ctrls.bytes_written::gpu.shader_cores11.data       105472                       # Number of bytes written to this memory
system.mem_ctrls.bytes_written::gpu.shader_cores12.data       105472                       # Number of bytes written to this memory
system.mem_ctrls.bytes_written::gpu.shader_cores13.data       105472                       # Number of bytes written to this memory
system.mem_ctrls.bytes_written::gpu.shader_cores14.data       105472                       # Number of bytes written to this memory
system.mem_ctrls.bytes_written::gpu.shader_cores15.data       105472                       # Number of bytes written to this memory
system.mem_ctrls.bytes_written::gpu.shader_cores16.data       105472                       # Number of bytes written to this memory
system.mem_ctrls.bytes_written::gpu.shader_cores17.data       104448                       # Number of bytes written to this memory
system.mem_ctrls.bytes_written::gpu.shader_cores18.data       104448                       # Number of bytes written to this memory
system.mem_ctrls.bytes_written::gpu.shader_cores19.data       104448                       # Number of bytes written to this memory
system.mem_ctrls.bytes_written::gpu.shader_cores20.data       104448                       # Number of bytes written to this memory
system.mem_ctrls.bytes_written::gpu.shader_cores21.data       104448                       # Number of bytes written to this memory
system.mem_ctrls.bytes_written::gpu.shader_cores22.data       104448                       # Number of bytes written to this memory
system.mem_ctrls.bytes_written::gpu.shader_cores23.data       104448                       # Number of bytes written to this memory
system.mem_ctrls.bytes_written::gpu.shader_cores24.data       104448                       # Number of bytes written to this memory
system.mem_ctrls.bytes_written::gpu.shader_cores25.data       104448                       # Number of bytes written to this memory
system.mem_ctrls.bytes_written::gpu.shader_cores26.data       104448                       # Number of bytes written to this memory
system.mem_ctrls.bytes_written::gpu.shader_cores27.data       104448                       # Number of bytes written to this memory
system.mem_ctrls.bytes_written::gpu.shader_cores28.data       104448                       # Number of bytes written to this memory
system.mem_ctrls.bytes_written::gpu.shader_cores29.data       104448                       # Number of bytes written to this memory
system.mem_ctrls.bytes_written::gpu.shader_cores30.data       104448                       # Number of bytes written to this memory
system.mem_ctrls.bytes_written::gpu.shader_cores31.data       104448                       # Number of bytes written to this memory
system.mem_ctrls.bytes_written::gpu.shader_cores32.data       104448                       # Number of bytes written to this memory
system.mem_ctrls.bytes_written::gpu.shader_cores33.data       104448                       # Number of bytes written to this memory
system.mem_ctrls.bytes_written::gpu.shader_cores34.data       104448                       # Number of bytes written to this memory
system.mem_ctrls.bytes_written::gpu.shader_cores35.data       104448                       # Number of bytes written to this memory
system.mem_ctrls.bytes_written::gpu.shader_cores36.data       104448                       # Number of bytes written to this memory
system.mem_ctrls.bytes_written::gpu.shader_cores37.data       104448                       # Number of bytes written to this memory
system.mem_ctrls.bytes_written::gpu.shader_cores38.data       104448                       # Number of bytes written to this memory
system.mem_ctrls.bytes_written::gpu.shader_cores39.data       104448                       # Number of bytes written to this memory
system.mem_ctrls.bytes_written::cpu0.data         8530                       # Number of bytes written to this memory
system.mem_ctrls.bytes_written::cpu1.data         4062                       # Number of bytes written to this memory
system.mem_ctrls.bytes_written::cpu2.data        11179                       # Number of bytes written to this memory
system.mem_ctrls.bytes_written::cpu3.data         4062                       # Number of bytes written to this memory
system.mem_ctrls.bytes_written::cpu4.data         4129                       # Number of bytes written to this memory
system.mem_ctrls.bytes_written::cpu5.data         3510                       # Number of bytes written to this memory
system.mem_ctrls.bytes_written::cpu6.data      1189764                       # Number of bytes written to this memory
system.mem_ctrls.bytes_written::cpu7.data        10395                       # Number of bytes written to this memory
system.mem_ctrls.bytes_written::total         5429935                       # Number of bytes written to this memory
system.mem_ctrls.num_reads::gpu.shader_mmu.pagewalkers00.walker        54192                       # Number of read requests responded to by this memory
system.mem_ctrls.num_reads::gpu.shader_mmu.pagewalkers01.walker        40664                       # Number of read requests responded to by this memory
system.mem_ctrls.num_reads::gpu.shader_mmu.pagewalkers02.walker        28296                       # Number of read requests responded to by this memory
system.mem_ctrls.num_reads::gpu.shader_mmu.pagewalkers03.walker         8736                       # Number of read requests responded to by this memory
system.mem_ctrls.num_reads::gpu.shader_mmu.pagewalkers04.walker         6704                       # Number of read requests responded to by this memory
system.mem_ctrls.num_reads::gpu.shader_mmu.pagewalkers05.walker         5268                       # Number of read requests responded to by this memory
system.mem_ctrls.num_reads::gpu.shader_mmu.pagewalkers06.walker         5004                       # Number of read requests responded to by this memory
system.mem_ctrls.num_reads::gpu.shader_mmu.pagewalkers07.walker         4664                       # Number of read requests responded to by this memory
system.mem_ctrls.num_reads::gpu.shader_mmu.pagewalkers08.walker         4640                       # Number of read requests responded to by this memory
system.mem_ctrls.num_reads::gpu.shader_mmu.pagewalkers09.walker         4556                       # Number of read requests responded to by this memory
system.mem_ctrls.num_reads::gpu.shader_mmu.pagewalkers10.walker         4440                       # Number of read requests responded to by this memory
system.mem_ctrls.num_reads::gpu.shader_mmu.pagewalkers11.walker         4348                       # Number of read requests responded to by this memory
system.mem_ctrls.num_reads::gpu.shader_mmu.pagewalkers12.walker         4332                       # Number of read requests responded to by this memory
system.mem_ctrls.num_reads::gpu.shader_mmu.pagewalkers13.walker         4368                       # Number of read requests responded to by this memory
system.mem_ctrls.num_reads::gpu.shader_mmu.pagewalkers14.walker         4284                       # Number of read requests responded to by this memory
system.mem_ctrls.num_reads::gpu.shader_mmu.pagewalkers15.walker         4228                       # Number of read requests responded to by this memory
system.mem_ctrls.num_reads::gpu.shader_mmu.pagewalkers16.walker         3784                       # Number of read requests responded to by this memory
system.mem_ctrls.num_reads::gpu.shader_mmu.pagewalkers17.walker         3704                       # Number of read requests responded to by this memory
system.mem_ctrls.num_reads::gpu.shader_mmu.pagewalkers18.walker         3516                       # Number of read requests responded to by this memory
system.mem_ctrls.num_reads::gpu.shader_mmu.pagewalkers19.walker         3512                       # Number of read requests responded to by this memory
system.mem_ctrls.num_reads::gpu.shader_mmu.pagewalkers20.walker         3508                       # Number of read requests responded to by this memory
system.mem_ctrls.num_reads::gpu.shader_mmu.pagewalkers21.walker         3352                       # Number of read requests responded to by this memory
system.mem_ctrls.num_reads::gpu.shader_mmu.pagewalkers22.walker         3472                       # Number of read requests responded to by this memory
system.mem_ctrls.num_reads::gpu.shader_mmu.pagewalkers23.walker         3348                       # Number of read requests responded to by this memory
system.mem_ctrls.num_reads::gpu.shader_mmu.pagewalkers24.walker         3396                       # Number of read requests responded to by this memory
system.mem_ctrls.num_reads::gpu.shader_mmu.pagewalkers25.walker         3540                       # Number of read requests responded to by this memory
system.mem_ctrls.num_reads::gpu.shader_mmu.pagewalkers26.walker         3372                       # Number of read requests responded to by this memory
system.mem_ctrls.num_reads::gpu.shader_mmu.pagewalkers27.walker         3368                       # Number of read requests responded to by this memory
system.mem_ctrls.num_reads::gpu.shader_mmu.pagewalkers28.walker         3260                       # Number of read requests responded to by this memory
system.mem_ctrls.num_reads::gpu.shader_mmu.pagewalkers29.walker         3416                       # Number of read requests responded to by this memory
system.mem_ctrls.num_reads::gpu.shader_mmu.pagewalkers30.walker         3244                       # Number of read requests responded to by this memory
system.mem_ctrls.num_reads::gpu.shader_mmu.pagewalkers31.walker         3228                       # Number of read requests responded to by this memory
system.mem_ctrls.num_reads::gpu.shader_cores00.data         4278                       # Number of read requests responded to by this memory
system.mem_ctrls.num_reads::gpu.shader_cores00.inst           35                       # Number of read requests responded to by this memory
system.mem_ctrls.num_reads::gpu.shader_cores01.data         4323                       # Number of read requests responded to by this memory
system.mem_ctrls.num_reads::gpu.shader_cores01.inst           35                       # Number of read requests responded to by this memory
system.mem_ctrls.num_reads::gpu.shader_cores02.data         4329                       # Number of read requests responded to by this memory
system.mem_ctrls.num_reads::gpu.shader_cores02.inst           35                       # Number of read requests responded to by this memory
system.mem_ctrls.num_reads::gpu.shader_cores03.data         4329                       # Number of read requests responded to by this memory
system.mem_ctrls.num_reads::gpu.shader_cores03.inst           35                       # Number of read requests responded to by this memory
system.mem_ctrls.num_reads::gpu.shader_cores04.data         4323                       # Number of read requests responded to by this memory
system.mem_ctrls.num_reads::gpu.shader_cores04.inst           35                       # Number of read requests responded to by this memory
system.mem_ctrls.num_reads::gpu.shader_cores05.data         4323                       # Number of read requests responded to by this memory
system.mem_ctrls.num_reads::gpu.shader_cores05.inst           35                       # Number of read requests responded to by this memory
system.mem_ctrls.num_reads::gpu.shader_cores06.data         4323                       # Number of read requests responded to by this memory
system.mem_ctrls.num_reads::gpu.shader_cores06.inst           35                       # Number of read requests responded to by this memory
system.mem_ctrls.num_reads::gpu.shader_cores07.data         4335                       # Number of read requests responded to by this memory
system.mem_ctrls.num_reads::gpu.shader_cores07.inst           35                       # Number of read requests responded to by this memory
system.mem_ctrls.num_reads::gpu.shader_cores08.data         4335                       # Number of read requests responded to by this memory
system.mem_ctrls.num_reads::gpu.shader_cores08.inst           35                       # Number of read requests responded to by this memory
system.mem_ctrls.num_reads::gpu.shader_cores09.data         4335                       # Number of read requests responded to by this memory
system.mem_ctrls.num_reads::gpu.shader_cores09.inst           35                       # Number of read requests responded to by this memory
system.mem_ctrls.num_reads::gpu.shader_cores10.data         4335                       # Number of read requests responded to by this memory
system.mem_ctrls.num_reads::gpu.shader_cores10.inst           35                       # Number of read requests responded to by this memory
system.mem_ctrls.num_reads::gpu.shader_cores11.data         4323                       # Number of read requests responded to by this memory
system.mem_ctrls.num_reads::gpu.shader_cores11.inst           35                       # Number of read requests responded to by this memory
system.mem_ctrls.num_reads::gpu.shader_cores12.data         4323                       # Number of read requests responded to by this memory
system.mem_ctrls.num_reads::gpu.shader_cores12.inst           35                       # Number of read requests responded to by this memory
system.mem_ctrls.num_reads::gpu.shader_cores13.data         4323                       # Number of read requests responded to by this memory
system.mem_ctrls.num_reads::gpu.shader_cores13.inst           35                       # Number of read requests responded to by this memory
system.mem_ctrls.num_reads::gpu.shader_cores14.data         4329                       # Number of read requests responded to by this memory
system.mem_ctrls.num_reads::gpu.shader_cores14.inst           35                       # Number of read requests responded to by this memory
system.mem_ctrls.num_reads::gpu.shader_cores15.data         4329                       # Number of read requests responded to by this memory
system.mem_ctrls.num_reads::gpu.shader_cores15.inst           35                       # Number of read requests responded to by this memory
system.mem_ctrls.num_reads::gpu.shader_cores16.data         4323                       # Number of read requests responded to by this memory
system.mem_ctrls.num_reads::gpu.shader_cores16.inst           35                       # Number of read requests responded to by this memory
system.mem_ctrls.num_reads::gpu.shader_cores17.data         4278                       # Number of read requests responded to by this memory
system.mem_ctrls.num_reads::gpu.shader_cores17.inst           35                       # Number of read requests responded to by this memory
system.mem_ctrls.num_reads::gpu.shader_cores18.data         4278                       # Number of read requests responded to by this memory
system.mem_ctrls.num_reads::gpu.shader_cores18.inst           35                       # Number of read requests responded to by this memory
system.mem_ctrls.num_reads::gpu.shader_cores19.data         4284                       # Number of read requests responded to by this memory
system.mem_ctrls.num_reads::gpu.shader_cores19.inst           35                       # Number of read requests responded to by this memory
system.mem_ctrls.num_reads::gpu.shader_cores20.data         4284                       # Number of read requests responded to by this memory
system.mem_ctrls.num_reads::gpu.shader_cores20.inst           35                       # Number of read requests responded to by this memory
system.mem_ctrls.num_reads::gpu.shader_cores21.data         4290                       # Number of read requests responded to by this memory
system.mem_ctrls.num_reads::gpu.shader_cores21.inst           35                       # Number of read requests responded to by this memory
system.mem_ctrls.num_reads::gpu.shader_cores22.data         4284                       # Number of read requests responded to by this memory
system.mem_ctrls.num_reads::gpu.shader_cores22.inst           35                       # Number of read requests responded to by this memory
system.mem_ctrls.num_reads::gpu.shader_cores23.data         4284                       # Number of read requests responded to by this memory
system.mem_ctrls.num_reads::gpu.shader_cores23.inst           35                       # Number of read requests responded to by this memory
system.mem_ctrls.num_reads::gpu.shader_cores24.data         4284                       # Number of read requests responded to by this memory
system.mem_ctrls.num_reads::gpu.shader_cores24.inst           35                       # Number of read requests responded to by this memory
system.mem_ctrls.num_reads::gpu.shader_cores25.data         4284                       # Number of read requests responded to by this memory
system.mem_ctrls.num_reads::gpu.shader_cores25.inst           35                       # Number of read requests responded to by this memory
system.mem_ctrls.num_reads::gpu.shader_cores26.data         4278                       # Number of read requests responded to by this memory
system.mem_ctrls.num_reads::gpu.shader_cores26.inst           35                       # Number of read requests responded to by this memory
system.mem_ctrls.num_reads::gpu.shader_cores27.data         4284                       # Number of read requests responded to by this memory
system.mem_ctrls.num_reads::gpu.shader_cores27.inst           35                       # Number of read requests responded to by this memory
system.mem_ctrls.num_reads::gpu.shader_cores28.data         4284                       # Number of read requests responded to by this memory
system.mem_ctrls.num_reads::gpu.shader_cores28.inst           35                       # Number of read requests responded to by this memory
system.mem_ctrls.num_reads::gpu.shader_cores29.data         4284                       # Number of read requests responded to by this memory
system.mem_ctrls.num_reads::gpu.shader_cores29.inst           35                       # Number of read requests responded to by this memory
system.mem_ctrls.num_reads::gpu.shader_cores30.data         4284                       # Number of read requests responded to by this memory
system.mem_ctrls.num_reads::gpu.shader_cores30.inst           35                       # Number of read requests responded to by this memory
system.mem_ctrls.num_reads::gpu.shader_cores31.data         4278                       # Number of read requests responded to by this memory
system.mem_ctrls.num_reads::gpu.shader_cores31.inst           35                       # Number of read requests responded to by this memory
system.mem_ctrls.num_reads::gpu.shader_cores32.data         4284                       # Number of read requests responded to by this memory
system.mem_ctrls.num_reads::gpu.shader_cores32.inst           35                       # Number of read requests responded to by this memory
system.mem_ctrls.num_reads::gpu.shader_cores33.data         4284                       # Number of read requests responded to by this memory
system.mem_ctrls.num_reads::gpu.shader_cores33.inst           35                       # Number of read requests responded to by this memory
system.mem_ctrls.num_reads::gpu.shader_cores34.data         4284                       # Number of read requests responded to by this memory
system.mem_ctrls.num_reads::gpu.shader_cores34.inst           35                       # Number of read requests responded to by this memory
system.mem_ctrls.num_reads::gpu.shader_cores35.data         4284                       # Number of read requests responded to by this memory
system.mem_ctrls.num_reads::gpu.shader_cores35.inst           35                       # Number of read requests responded to by this memory
system.mem_ctrls.num_reads::gpu.shader_cores36.data         4290                       # Number of read requests responded to by this memory
system.mem_ctrls.num_reads::gpu.shader_cores36.inst           35                       # Number of read requests responded to by this memory
system.mem_ctrls.num_reads::gpu.shader_cores37.data         4284                       # Number of read requests responded to by this memory
system.mem_ctrls.num_reads::gpu.shader_cores37.inst           35                       # Number of read requests responded to by this memory
system.mem_ctrls.num_reads::gpu.shader_cores38.data         4284                       # Number of read requests responded to by this memory
system.mem_ctrls.num_reads::gpu.shader_cores38.inst           35                       # Number of read requests responded to by this memory
system.mem_ctrls.num_reads::gpu.shader_cores39.data         4278                       # Number of read requests responded to by this memory
system.mem_ctrls.num_reads::gpu.shader_cores39.inst           35                       # Number of read requests responded to by this memory
system.mem_ctrls.num_reads::cpu0.inst           10556                       # Number of read requests responded to by this memory
system.mem_ctrls.num_reads::cpu0.data            2268                       # Number of read requests responded to by this memory
system.mem_ctrls.num_reads::cpu1.inst            5004                       # Number of read requests responded to by this memory
system.mem_ctrls.num_reads::cpu1.data            1088                       # Number of read requests responded to by this memory
system.mem_ctrls.num_reads::cpu2.inst           12904                       # Number of read requests responded to by this memory
system.mem_ctrls.num_reads::cpu2.data            3314                       # Number of read requests responded to by this memory
system.mem_ctrls.num_reads::cpu3.inst            4919                       # Number of read requests responded to by this memory
system.mem_ctrls.num_reads::cpu3.data            1071                       # Number of read requests responded to by this memory
system.mem_ctrls.num_reads::cpu4.inst            5015                       # Number of read requests responded to by this memory
system.mem_ctrls.num_reads::cpu4.data            1092                       # Number of read requests responded to by this memory
system.mem_ctrls.num_reads::cpu5.inst            4347                       # Number of read requests responded to by this memory
system.mem_ctrls.num_reads::cpu5.data             925                       # Number of read requests responded to by this memory
system.mem_ctrls.num_reads::cpu6.dtb.walker          150                       # Number of read requests responded to by this memory
system.mem_ctrls.num_reads::cpu6.inst         1638872                       # Number of read requests responded to by this memory
system.mem_ctrls.num_reads::cpu6.data          297383                       # Number of read requests responded to by this memory
system.mem_ctrls.num_reads::cpu7.inst           12004                       # Number of read requests responded to by this memory
system.mem_ctrls.num_reads::cpu7.data            3060                       # Number of read requests responded to by this memory
system.mem_ctrls.num_reads::total             2421148                       # Number of read requests responded to by this memory
system.mem_ctrls.num_writes::gpu.shader_cores00.data         2392                       # Number of write requests responded to by this memory
system.mem_ctrls.num_writes::gpu.shader_cores01.data         2418                       # Number of write requests responded to by this memory
system.mem_ctrls.num_writes::gpu.shader_cores02.data         2423                       # Number of write requests responded to by this memory
system.mem_ctrls.num_writes::gpu.shader_cores03.data         2423                       # Number of write requests responded to by this memory
system.mem_ctrls.num_writes::gpu.shader_cores04.data         2418                       # Number of write requests responded to by this memory
system.mem_ctrls.num_writes::gpu.shader_cores05.data         2418                       # Number of write requests responded to by this memory
system.mem_ctrls.num_writes::gpu.shader_cores06.data         2418                       # Number of write requests responded to by this memory
system.mem_ctrls.num_writes::gpu.shader_cores07.data         2428                       # Number of write requests responded to by this memory
system.mem_ctrls.num_writes::gpu.shader_cores08.data         2428                       # Number of write requests responded to by this memory
system.mem_ctrls.num_writes::gpu.shader_cores09.data         2428                       # Number of write requests responded to by this memory
system.mem_ctrls.num_writes::gpu.shader_cores10.data         2428                       # Number of write requests responded to by this memory
system.mem_ctrls.num_writes::gpu.shader_cores11.data         2418                       # Number of write requests responded to by this memory
system.mem_ctrls.num_writes::gpu.shader_cores12.data         2418                       # Number of write requests responded to by this memory
system.mem_ctrls.num_writes::gpu.shader_cores13.data         2418                       # Number of write requests responded to by this memory
system.mem_ctrls.num_writes::gpu.shader_cores14.data         2423                       # Number of write requests responded to by this memory
system.mem_ctrls.num_writes::gpu.shader_cores15.data         2423                       # Number of write requests responded to by this memory
system.mem_ctrls.num_writes::gpu.shader_cores16.data         2418                       # Number of write requests responded to by this memory
system.mem_ctrls.num_writes::gpu.shader_cores17.data         2392                       # Number of write requests responded to by this memory
system.mem_ctrls.num_writes::gpu.shader_cores18.data         2392                       # Number of write requests responded to by this memory
system.mem_ctrls.num_writes::gpu.shader_cores19.data         2397                       # Number of write requests responded to by this memory
system.mem_ctrls.num_writes::gpu.shader_cores20.data         2397                       # Number of write requests responded to by this memory
system.mem_ctrls.num_writes::gpu.shader_cores21.data         2402                       # Number of write requests responded to by this memory
system.mem_ctrls.num_writes::gpu.shader_cores22.data         2397                       # Number of write requests responded to by this memory
system.mem_ctrls.num_writes::gpu.shader_cores23.data         2397                       # Number of write requests responded to by this memory
system.mem_ctrls.num_writes::gpu.shader_cores24.data         2397                       # Number of write requests responded to by this memory
system.mem_ctrls.num_writes::gpu.shader_cores25.data         2397                       # Number of write requests responded to by this memory
system.mem_ctrls.num_writes::gpu.shader_cores26.data         2392                       # Number of write requests responded to by this memory
system.mem_ctrls.num_writes::gpu.shader_cores27.data         2397                       # Number of write requests responded to by this memory
system.mem_ctrls.num_writes::gpu.shader_cores28.data         2397                       # Number of write requests responded to by this memory
system.mem_ctrls.num_writes::gpu.shader_cores29.data         2397                       # Number of write requests responded to by this memory
system.mem_ctrls.num_writes::gpu.shader_cores30.data         2397                       # Number of write requests responded to by this memory
system.mem_ctrls.num_writes::gpu.shader_cores31.data         2392                       # Number of write requests responded to by this memory
system.mem_ctrls.num_writes::gpu.shader_cores32.data         2397                       # Number of write requests responded to by this memory
system.mem_ctrls.num_writes::gpu.shader_cores33.data         2397                       # Number of write requests responded to by this memory
system.mem_ctrls.num_writes::gpu.shader_cores34.data         2397                       # Number of write requests responded to by this memory
system.mem_ctrls.num_writes::gpu.shader_cores35.data         2397                       # Number of write requests responded to by this memory
system.mem_ctrls.num_writes::gpu.shader_cores36.data         2402                       # Number of write requests responded to by this memory
system.mem_ctrls.num_writes::gpu.shader_cores37.data         2397                       # Number of write requests responded to by this memory
system.mem_ctrls.num_writes::gpu.shader_cores38.data         2397                       # Number of write requests responded to by this memory
system.mem_ctrls.num_writes::gpu.shader_cores39.data         2392                       # Number of write requests responded to by this memory
system.mem_ctrls.num_writes::cpu0.data           1191                       # Number of write requests responded to by this memory
system.mem_ctrls.num_writes::cpu1.data            569                       # Number of write requests responded to by this memory
system.mem_ctrls.num_writes::cpu2.data           1623                       # Number of write requests responded to by this memory
system.mem_ctrls.num_writes::cpu3.data            569                       # Number of write requests responded to by this memory
system.mem_ctrls.num_writes::cpu4.data            579                       # Number of write requests responded to by this memory
system.mem_ctrls.num_writes::cpu5.data            489                       # Number of write requests responded to by this memory
system.mem_ctrls.num_writes::cpu6.data         193622                       # Number of write requests responded to by this memory
system.mem_ctrls.num_writes::cpu7.data           1507                       # Number of write requests responded to by this memory
system.mem_ctrls.num_writes::total             296405                       # Number of write requests responded to by this memory
system.mem_ctrls.bw_read::gpu.shader_mmu.pagewalkers00.walker     70508792                       # Total read bandwidth from this memory (bytes/s)
system.mem_ctrls.bw_read::gpu.shader_mmu.pagewalkers01.walker     52907616                       # Total read bandwidth from this memory (bytes/s)
system.mem_ctrls.bw_read::gpu.shader_mmu.pagewalkers02.walker     36815707                       # Total read bandwidth from this memory (bytes/s)
system.mem_ctrls.bw_read::gpu.shader_mmu.pagewalkers03.walker     11366342                       # Total read bandwidth from this memory (bytes/s)
system.mem_ctrls.bw_read::gpu.shader_mmu.pagewalkers04.walker      8722523                       # Total read bandwidth from this memory (bytes/s)
system.mem_ctrls.bw_read::gpu.shader_mmu.pagewalkers05.walker      6854154                       # Total read bandwidth from this memory (bytes/s)
system.mem_ctrls.bw_read::gpu.shader_mmu.pagewalkers06.walker      6510666                       # Total read bandwidth from this memory (bytes/s)
system.mem_ctrls.bw_read::gpu.shader_mmu.pagewalkers07.walker      6068294                       # Total read bandwidth from this memory (bytes/s)
system.mem_ctrls.bw_read::gpu.shader_mmu.pagewalkers08.walker      6037068                       # Total read bandwidth from this memory (bytes/s)
system.mem_ctrls.bw_read::gpu.shader_mmu.pagewalkers09.walker      5927776                       # Total read bandwidth from this memory (bytes/s)
system.mem_ctrls.bw_read::gpu.shader_mmu.pagewalkers10.walker      5776850                       # Total read bandwidth from this memory (bytes/s)
system.mem_ctrls.bw_read::gpu.shader_mmu.pagewalkers11.walker      5657149                       # Total read bandwidth from this memory (bytes/s)
system.mem_ctrls.bw_read::gpu.shader_mmu.pagewalkers12.walker      5636332                       # Total read bandwidth from this memory (bytes/s)
system.mem_ctrls.bw_read::gpu.shader_mmu.pagewalkers13.walker      5683171                       # Total read bandwidth from this memory (bytes/s)
system.mem_ctrls.bw_read::gpu.shader_mmu.pagewalkers14.walker      5573879                       # Total read bandwidth from this memory (bytes/s)
system.mem_ctrls.bw_read::gpu.shader_mmu.pagewalkers15.walker      5501018                       # Total read bandwidth from this memory (bytes/s)
system.mem_ctrls.bw_read::gpu.shader_mmu.pagewalkers16.walker      4923333                       # Total read bandwidth from this memory (bytes/s)
system.mem_ctrls.bw_read::gpu.shader_mmu.pagewalkers17.walker      4819246                       # Total read bandwidth from this memory (bytes/s)
system.mem_ctrls.bw_read::gpu.shader_mmu.pagewalkers18.walker      4574640                       # Total read bandwidth from this memory (bytes/s)
system.mem_ctrls.bw_read::gpu.shader_mmu.pagewalkers19.walker      4569436                       # Total read bandwidth from this memory (bytes/s)
system.mem_ctrls.bw_read::gpu.shader_mmu.pagewalkers20.walker      4564232                       # Total read bandwidth from this memory (bytes/s)
system.mem_ctrls.bw_read::gpu.shader_mmu.pagewalkers21.walker      4361261                       # Total read bandwidth from this memory (bytes/s)
system.mem_ctrls.bw_read::gpu.shader_mmu.pagewalkers22.walker      4517392                       # Total read bandwidth from this memory (bytes/s)
system.mem_ctrls.bw_read::gpu.shader_mmu.pagewalkers23.walker      4356057                       # Total read bandwidth from this memory (bytes/s)
system.mem_ctrls.bw_read::gpu.shader_mmu.pagewalkers24.walker      4418509                       # Total read bandwidth from this memory (bytes/s)
system.mem_ctrls.bw_read::gpu.shader_mmu.pagewalkers25.walker      4605867                       # Total read bandwidth from this memory (bytes/s)
system.mem_ctrls.bw_read::gpu.shader_mmu.pagewalkers26.walker      4387283                       # Total read bandwidth from this memory (bytes/s)
system.mem_ctrls.bw_read::gpu.shader_mmu.pagewalkers27.walker      4382079                       # Total read bandwidth from this memory (bytes/s)
system.mem_ctrls.bw_read::gpu.shader_mmu.pagewalkers28.walker      4241561                       # Total read bandwidth from this memory (bytes/s)
system.mem_ctrls.bw_read::gpu.shader_mmu.pagewalkers29.walker      4444531                       # Total read bandwidth from this memory (bytes/s)
system.mem_ctrls.bw_read::gpu.shader_mmu.pagewalkers30.walker      4220743                       # Total read bandwidth from this memory (bytes/s)
system.mem_ctrls.bw_read::gpu.shader_mmu.pagewalkers31.walker      4199926                       # Total read bandwidth from this memory (bytes/s)
system.mem_ctrls.bw_read::gpu.shader_cores00.data     39584431                       # Total read bandwidth from this memory (bytes/s)
system.mem_ctrls.bw_read::gpu.shader_cores00.inst       136615                       # Total read bandwidth from this memory (bytes/s)
system.mem_ctrls.bw_read::gpu.shader_cores01.data     39953941                       # Total read bandwidth from this memory (bytes/s)
system.mem_ctrls.bw_read::gpu.shader_cores01.inst       136615                       # Total read bandwidth from this memory (bytes/s)
system.mem_ctrls.bw_read::gpu.shader_cores02.data     39917511                       # Total read bandwidth from this memory (bytes/s)
system.mem_ctrls.bw_read::gpu.shader_cores02.inst       136615                       # Total read bandwidth from this memory (bytes/s)
system.mem_ctrls.bw_read::gpu.shader_cores03.data     39917511                       # Total read bandwidth from this memory (bytes/s)
system.mem_ctrls.bw_read::gpu.shader_cores03.inst       136615                       # Total read bandwidth from this memory (bytes/s)
system.mem_ctrls.bw_read::gpu.shader_cores04.data     39953941                       # Total read bandwidth from this memory (bytes/s)
system.mem_ctrls.bw_read::gpu.shader_cores04.inst       136615                       # Total read bandwidth from this memory (bytes/s)
system.mem_ctrls.bw_read::gpu.shader_cores05.data     39953941                       # Total read bandwidth from this memory (bytes/s)
system.mem_ctrls.bw_read::gpu.shader_cores05.inst       136615                       # Total read bandwidth from this memory (bytes/s)
system.mem_ctrls.bw_read::gpu.shader_cores06.data     39953941                       # Total read bandwidth from this memory (bytes/s)
system.mem_ctrls.bw_read::gpu.shader_cores06.inst       136615                       # Total read bandwidth from this memory (bytes/s)
system.mem_ctrls.bw_read::gpu.shader_cores07.data     39881080                       # Total read bandwidth from this memory (bytes/s)
system.mem_ctrls.bw_read::gpu.shader_cores07.inst       136615                       # Total read bandwidth from this memory (bytes/s)
system.mem_ctrls.bw_read::gpu.shader_cores08.data     39881080                       # Total read bandwidth from this memory (bytes/s)
system.mem_ctrls.bw_read::gpu.shader_cores08.inst       136615                       # Total read bandwidth from this memory (bytes/s)
system.mem_ctrls.bw_read::gpu.shader_cores09.data     39881080                       # Total read bandwidth from this memory (bytes/s)
system.mem_ctrls.bw_read::gpu.shader_cores09.inst       136615                       # Total read bandwidth from this memory (bytes/s)
system.mem_ctrls.bw_read::gpu.shader_cores10.data     39881080                       # Total read bandwidth from this memory (bytes/s)
system.mem_ctrls.bw_read::gpu.shader_cores10.inst       136615                       # Total read bandwidth from this memory (bytes/s)
system.mem_ctrls.bw_read::gpu.shader_cores11.data     39953941                       # Total read bandwidth from this memory (bytes/s)
system.mem_ctrls.bw_read::gpu.shader_cores11.inst       136615                       # Total read bandwidth from this memory (bytes/s)
system.mem_ctrls.bw_read::gpu.shader_cores12.data     39953941                       # Total read bandwidth from this memory (bytes/s)
system.mem_ctrls.bw_read::gpu.shader_cores12.inst       136615                       # Total read bandwidth from this memory (bytes/s)
system.mem_ctrls.bw_read::gpu.shader_cores13.data     39953941                       # Total read bandwidth from this memory (bytes/s)
system.mem_ctrls.bw_read::gpu.shader_cores13.inst       136615                       # Total read bandwidth from this memory (bytes/s)
system.mem_ctrls.bw_read::gpu.shader_cores14.data     39917511                       # Total read bandwidth from this memory (bytes/s)
system.mem_ctrls.bw_read::gpu.shader_cores14.inst       136615                       # Total read bandwidth from this memory (bytes/s)
system.mem_ctrls.bw_read::gpu.shader_cores15.data     39917511                       # Total read bandwidth from this memory (bytes/s)
system.mem_ctrls.bw_read::gpu.shader_cores15.inst       136615                       # Total read bandwidth from this memory (bytes/s)
system.mem_ctrls.bw_read::gpu.shader_cores16.data     39953941                       # Total read bandwidth from this memory (bytes/s)
system.mem_ctrls.bw_read::gpu.shader_cores16.inst       136615                       # Total read bandwidth from this memory (bytes/s)
system.mem_ctrls.bw_read::gpu.shader_cores17.data     39584431                       # Total read bandwidth from this memory (bytes/s)
system.mem_ctrls.bw_read::gpu.shader_cores17.inst       136615                       # Total read bandwidth from this memory (bytes/s)
system.mem_ctrls.bw_read::gpu.shader_cores18.data     39584431                       # Total read bandwidth from this memory (bytes/s)
system.mem_ctrls.bw_read::gpu.shader_cores18.inst       136615                       # Total read bandwidth from this memory (bytes/s)
system.mem_ctrls.bw_read::gpu.shader_cores19.data     39548001                       # Total read bandwidth from this memory (bytes/s)
system.mem_ctrls.bw_read::gpu.shader_cores19.inst       136615                       # Total read bandwidth from this memory (bytes/s)
system.mem_ctrls.bw_read::gpu.shader_cores20.data     39548001                       # Total read bandwidth from this memory (bytes/s)
system.mem_ctrls.bw_read::gpu.shader_cores20.inst       136615                       # Total read bandwidth from this memory (bytes/s)
system.mem_ctrls.bw_read::gpu.shader_cores21.data     39511570                       # Total read bandwidth from this memory (bytes/s)
system.mem_ctrls.bw_read::gpu.shader_cores21.inst       136615                       # Total read bandwidth from this memory (bytes/s)
system.mem_ctrls.bw_read::gpu.shader_cores22.data     39548001                       # Total read bandwidth from this memory (bytes/s)
system.mem_ctrls.bw_read::gpu.shader_cores22.inst       136615                       # Total read bandwidth from this memory (bytes/s)
system.mem_ctrls.bw_read::gpu.shader_cores23.data     39548001                       # Total read bandwidth from this memory (bytes/s)
system.mem_ctrls.bw_read::gpu.shader_cores23.inst       136615                       # Total read bandwidth from this memory (bytes/s)
system.mem_ctrls.bw_read::gpu.shader_cores24.data     39548001                       # Total read bandwidth from this memory (bytes/s)
system.mem_ctrls.bw_read::gpu.shader_cores24.inst       136615                       # Total read bandwidth from this memory (bytes/s)
system.mem_ctrls.bw_read::gpu.shader_cores25.data     39548001                       # Total read bandwidth from this memory (bytes/s)
system.mem_ctrls.bw_read::gpu.shader_cores25.inst       136615                       # Total read bandwidth from this memory (bytes/s)
system.mem_ctrls.bw_read::gpu.shader_cores26.data     39584431                       # Total read bandwidth from this memory (bytes/s)
system.mem_ctrls.bw_read::gpu.shader_cores26.inst       136615                       # Total read bandwidth from this memory (bytes/s)
system.mem_ctrls.bw_read::gpu.shader_cores27.data     39548001                       # Total read bandwidth from this memory (bytes/s)
system.mem_ctrls.bw_read::gpu.shader_cores27.inst       136615                       # Total read bandwidth from this memory (bytes/s)
system.mem_ctrls.bw_read::gpu.shader_cores28.data     39548001                       # Total read bandwidth from this memory (bytes/s)
system.mem_ctrls.bw_read::gpu.shader_cores28.inst       136615                       # Total read bandwidth from this memory (bytes/s)
system.mem_ctrls.bw_read::gpu.shader_cores29.data     39548001                       # Total read bandwidth from this memory (bytes/s)
system.mem_ctrls.bw_read::gpu.shader_cores29.inst       136615                       # Total read bandwidth from this memory (bytes/s)
system.mem_ctrls.bw_read::gpu.shader_cores30.data     39548001                       # Total read bandwidth from this memory (bytes/s)
system.mem_ctrls.bw_read::gpu.shader_cores30.inst       136615                       # Total read bandwidth from this memory (bytes/s)
system.mem_ctrls.bw_read::gpu.shader_cores31.data     39584431                       # Total read bandwidth from this memory (bytes/s)
system.mem_ctrls.bw_read::gpu.shader_cores31.inst       136615                       # Total read bandwidth from this memory (bytes/s)
system.mem_ctrls.bw_read::gpu.shader_cores32.data     39548001                       # Total read bandwidth from this memory (bytes/s)
system.mem_ctrls.bw_read::gpu.shader_cores32.inst       136615                       # Total read bandwidth from this memory (bytes/s)
system.mem_ctrls.bw_read::gpu.shader_cores33.data     39548001                       # Total read bandwidth from this memory (bytes/s)
system.mem_ctrls.bw_read::gpu.shader_cores33.inst       136615                       # Total read bandwidth from this memory (bytes/s)
system.mem_ctrls.bw_read::gpu.shader_cores34.data     39548001                       # Total read bandwidth from this memory (bytes/s)
system.mem_ctrls.bw_read::gpu.shader_cores34.inst       136615                       # Total read bandwidth from this memory (bytes/s)
system.mem_ctrls.bw_read::gpu.shader_cores35.data     39548001                       # Total read bandwidth from this memory (bytes/s)
system.mem_ctrls.bw_read::gpu.shader_cores35.inst       136615                       # Total read bandwidth from this memory (bytes/s)
system.mem_ctrls.bw_read::gpu.shader_cores36.data     39511570                       # Total read bandwidth from this memory (bytes/s)
system.mem_ctrls.bw_read::gpu.shader_cores36.inst       136615                       # Total read bandwidth from this memory (bytes/s)
system.mem_ctrls.bw_read::gpu.shader_cores37.data     39548001                       # Total read bandwidth from this memory (bytes/s)
system.mem_ctrls.bw_read::gpu.shader_cores37.inst       136615                       # Total read bandwidth from this memory (bytes/s)
system.mem_ctrls.bw_read::gpu.shader_cores38.data     39548001                       # Total read bandwidth from this memory (bytes/s)
system.mem_ctrls.bw_read::gpu.shader_cores38.inst       136615                       # Total read bandwidth from this memory (bytes/s)
system.mem_ctrls.bw_read::gpu.shader_cores39.data     39584431                       # Total read bandwidth from this memory (bytes/s)
system.mem_ctrls.bw_read::gpu.shader_cores39.inst       136615                       # Total read bandwidth from this memory (bytes/s)
system.mem_ctrls.bw_read::cpu0.inst          13734330                       # Total read bandwidth from this memory (bytes/s)
system.mem_ctrls.bw_read::cpu0.data           2542660                       # Total read bandwidth from this memory (bytes/s)
system.mem_ctrls.bw_read::cpu1.inst           6510666                       # Total read bandwidth from this memory (bytes/s)
system.mem_ctrls.bw_read::cpu1.data           1193102                       # Total read bandwidth from this memory (bytes/s)
system.mem_ctrls.bw_read::cpu2.inst          16789295                       # Total read bandwidth from this memory (bytes/s)
system.mem_ctrls.bw_read::cpu2.data           3070903                       # Total read bandwidth from this memory (bytes/s)
system.mem_ctrls.bw_read::cpu3.inst           6400073                       # Total read bandwidth from this memory (bytes/s)
system.mem_ctrls.bw_read::cpu3.data           1190337                       # Total read bandwidth from this memory (bytes/s)
system.mem_ctrls.bw_read::cpu4.inst           6524978                       # Total read bandwidth from this memory (bytes/s)
system.mem_ctrls.bw_read::cpu4.data           1212943                       # Total read bandwidth from this memory (bytes/s)
system.mem_ctrls.bw_read::cpu5.inst           5655848                       # Total read bandwidth from this memory (bytes/s)
system.mem_ctrls.bw_read::cpu5.data           1029977                       # Total read bandwidth from this memory (bytes/s)
system.mem_ctrls.bw_read::cpu6.dtb.walker       195164                       # Total read bandwidth from this memory (bytes/s)
system.mem_ctrls.bw_read::cpu6.inst        2132323686                       # Total read bandwidth from this memory (bytes/s)
system.mem_ctrls.bw_read::cpu6.data         291706675                       # Total read bandwidth from this memory (bytes/s)
system.mem_ctrls.bw_read::cpu7.inst          15618312                       # Total read bandwidth from this memory (bytes/s)
system.mem_ctrls.bw_read::cpu7.data           2863379                       # Total read bandwidth from this memory (bytes/s)
system.mem_ctrls.bw_read::total            4419283976                       # Total read bandwidth from this memory (bytes/s)
system.mem_ctrls.bw_inst_read::gpu.shader_cores00.inst       136615                       # Instruction read bandwidth from this memory (bytes/s)
system.mem_ctrls.bw_inst_read::gpu.shader_cores01.inst       136615                       # Instruction read bandwidth from this memory (bytes/s)
system.mem_ctrls.bw_inst_read::gpu.shader_cores02.inst       136615                       # Instruction read bandwidth from this memory (bytes/s)
system.mem_ctrls.bw_inst_read::gpu.shader_cores03.inst       136615                       # Instruction read bandwidth from this memory (bytes/s)
system.mem_ctrls.bw_inst_read::gpu.shader_cores04.inst       136615                       # Instruction read bandwidth from this memory (bytes/s)
system.mem_ctrls.bw_inst_read::gpu.shader_cores05.inst       136615                       # Instruction read bandwidth from this memory (bytes/s)
system.mem_ctrls.bw_inst_read::gpu.shader_cores06.inst       136615                       # Instruction read bandwidth from this memory (bytes/s)
system.mem_ctrls.bw_inst_read::gpu.shader_cores07.inst       136615                       # Instruction read bandwidth from this memory (bytes/s)
system.mem_ctrls.bw_inst_read::gpu.shader_cores08.inst       136615                       # Instruction read bandwidth from this memory (bytes/s)
system.mem_ctrls.bw_inst_read::gpu.shader_cores09.inst       136615                       # Instruction read bandwidth from this memory (bytes/s)
system.mem_ctrls.bw_inst_read::gpu.shader_cores10.inst       136615                       # Instruction read bandwidth from this memory (bytes/s)
system.mem_ctrls.bw_inst_read::gpu.shader_cores11.inst       136615                       # Instruction read bandwidth from this memory (bytes/s)
system.mem_ctrls.bw_inst_read::gpu.shader_cores12.inst       136615                       # Instruction read bandwidth from this memory (bytes/s)
system.mem_ctrls.bw_inst_read::gpu.shader_cores13.inst       136615                       # Instruction read bandwidth from this memory (bytes/s)
system.mem_ctrls.bw_inst_read::gpu.shader_cores14.inst       136615                       # Instruction read bandwidth from this memory (bytes/s)
system.mem_ctrls.bw_inst_read::gpu.shader_cores15.inst       136615                       # Instruction read bandwidth from this memory (bytes/s)
system.mem_ctrls.bw_inst_read::gpu.shader_cores16.inst       136615                       # Instruction read bandwidth from this memory (bytes/s)
system.mem_ctrls.bw_inst_read::gpu.shader_cores17.inst       136615                       # Instruction read bandwidth from this memory (bytes/s)
system.mem_ctrls.bw_inst_read::gpu.shader_cores18.inst       136615                       # Instruction read bandwidth from this memory (bytes/s)
system.mem_ctrls.bw_inst_read::gpu.shader_cores19.inst       136615                       # Instruction read bandwidth from this memory (bytes/s)
system.mem_ctrls.bw_inst_read::gpu.shader_cores20.inst       136615                       # Instruction read bandwidth from this memory (bytes/s)
system.mem_ctrls.bw_inst_read::gpu.shader_cores21.inst       136615                       # Instruction read bandwidth from this memory (bytes/s)
system.mem_ctrls.bw_inst_read::gpu.shader_cores22.inst       136615                       # Instruction read bandwidth from this memory (bytes/s)
system.mem_ctrls.bw_inst_read::gpu.shader_cores23.inst       136615                       # Instruction read bandwidth from this memory (bytes/s)
system.mem_ctrls.bw_inst_read::gpu.shader_cores24.inst       136615                       # Instruction read bandwidth from this memory (bytes/s)
system.mem_ctrls.bw_inst_read::gpu.shader_cores25.inst       136615                       # Instruction read bandwidth from this memory (bytes/s)
system.mem_ctrls.bw_inst_read::gpu.shader_cores26.inst       136615                       # Instruction read bandwidth from this memory (bytes/s)
system.mem_ctrls.bw_inst_read::gpu.shader_cores27.inst       136615                       # Instruction read bandwidth from this memory (bytes/s)
system.mem_ctrls.bw_inst_read::gpu.shader_cores28.inst       136615                       # Instruction read bandwidth from this memory (bytes/s)
system.mem_ctrls.bw_inst_read::gpu.shader_cores29.inst       136615                       # Instruction read bandwidth from this memory (bytes/s)
system.mem_ctrls.bw_inst_read::gpu.shader_cores30.inst       136615                       # Instruction read bandwidth from this memory (bytes/s)
system.mem_ctrls.bw_inst_read::gpu.shader_cores31.inst       136615                       # Instruction read bandwidth from this memory (bytes/s)
system.mem_ctrls.bw_inst_read::gpu.shader_cores32.inst       136615                       # Instruction read bandwidth from this memory (bytes/s)
system.mem_ctrls.bw_inst_read::gpu.shader_cores33.inst       136615                       # Instruction read bandwidth from this memory (bytes/s)
[...]
system.ruby.L2Cache_Controller.M.L1_GET_INSTR::total            3                      
system.ruby.L2Cache_Controller.M.L1_GETS |       10175      6.38%      6.38% |       10082      6.32%     12.71% |       10207      6.40%     19.11% |       10092      6.33%     25.44% |        9987      6.26%     31.70% |        9788      6.14%     37.84% |        9926      6.23%     44.07% |        9766      6.13%     50.20% |        9711      6.09%     56.29% |        9757      6.12%     62.41% |        9914      6.22%     68.63% |        9859      6.18%     74.81% |        9875      6.19%     81.01% |        9993      6.27%     87.27% |       10177      6.38%     93.66% |       10112      6.34%    100.00%
system.ruby.L2Cache_Controller.M.L1_GETS::total       159421                      
system.ruby.L2Cache_Controller.M.L1_GETX |        5118      6.46%      6.46% |        5113      6.45%     12.92% |        4877      6.16%     19.07% |        5024      6.34%     25.41% |        5364      6.77%     32.19% |        5007      6.32%     38.51% |        4887      6.17%     44.68% |        4814      6.08%     50.75% |        4684      5.91%     56.67% |        4893      6.18%     62.84% |        4319      5.45%     68.30% |        4769      6.02%     74.32% |        5179      6.54%     80.85% |        5051      6.38%     87.23% |        4984      6.29%     93.52% |        5131      6.48%    100.00%
system.ruby.L2Cache_Controller.M.L1_GETX::total        79214                      
system.ruby.L2Cache_Controller.M.L2_Replacement |          22      5.77%      5.77% |          24      6.30%     12.07% |          23      6.04%     18.11% |          22      5.77%     23.88% |          25      6.56%     30.45% |          23      6.04%     36.48% |          26      6.82%     43.31% |          26      6.82%     50.13% |          24      6.30%     56.43% |          23      6.04%     62.47% |          23      6.04%     68.50% |          23      6.04%     74.54% |          27      7.09%     81.63% |          23      6.04%     87.66% |          22      5.77%     93.44% |          25      6.56%    100.00%
system.ruby.L2Cache_Controller.M.L2_Replacement::total          381                      
system.ruby.L2Cache_Controller.M.L2_Replacement_clean |           3     60.00%     60.00% |           0      0.00%     60.00% |           0      0.00%     60.00% |           0      0.00%     60.00% |           0      0.00%     60.00% |           0      0.00%     60.00% |           1     20.00%     80.00% |           0      0.00%     80.00% |           0      0.00%     80.00% |           0      0.00%     80.00% |           0      0.00%     80.00% |           0      0.00%     80.00% |           0      0.00%     80.00% |           1     20.00%    100.00% |           0      0.00%    100.00% |           0      0.00%    100.00%
system.ruby.L2Cache_Controller.M.L2_Replacement_clean::total            5                      
system.ruby.L2Cache_Controller.MT.L1_GETS |         519      4.61%      4.61% |         535      4.75%      9.36% |         604      5.36%     14.73% |         616      5.47%     20.20% |         688      6.11%     26.31% |         783      6.95%     33.26% |         832      7.39%     40.65% |         842      7.48%     48.13% |         832      7.39%     55.52% |         832      7.39%     62.91% |         832      7.39%     70.30% |         772      6.86%     77.16% |         707      6.28%     83.44% |         641      5.69%     89.13% |         622      5.52%     94.65% |         602      5.35%    100.00%
system.ruby.L2Cache_Controller.MT.L1_GETS::total        11259                      
system.ruby.L2Cache_Controller.MT.L1_GETX |           5      2.84%      2.84% |          15      8.52%     11.36% |          12      6.82%     18.18% |           6      3.41%     21.59% |           8      4.55%     26.14% |           3      1.70%     27.84% |           3      1.70%     29.55% |           2      1.14%     30.68% |           2      1.14%     31.82% |          17      9.66%     41.48% |          28     15.91%     57.39% |          19     10.80%     68.18% |           4      2.27%     70.45% |          20     11.36%     81.82% |           6      3.41%     85.23% |          26     14.77%    100.00%
system.ruby.L2Cache_Controller.MT.L1_GETX::total          176                      
system.ruby.L2Cache_Controller.MT.L1_PUTX |       14608      6.41%      6.41% |       14507      6.37%     12.78% |       14387      6.32%     19.10% |       14414      6.33%     25.42% |       14645      6.43%     31.85% |       14075      6.18%     38.03% |       14092      6.19%     44.22% |       13883      6.09%     50.31% |       13718      6.02%     56.33% |       13994      6.14%     62.48% |       13602      5.97%     68.45% |       14018      6.15%     74.60% |       14426      6.33%     80.93% |       14412      6.33%     87.26% |       14473      6.35%     93.61% |       14548      6.39%    100.00%
system.ruby.L2Cache_Controller.MT.L1_PUTX::total       227802                      
system.ruby.L2Cache_Controller.M_I.Mem_Ack |          25      6.48%      6.48% |          24      6.22%     12.69% |          23      5.96%     18.65% |          22      5.70%     24.35% |          25      6.48%     30.83% |          23      5.96%     36.79% |          27      6.99%     43.78% |          26      6.74%     50.52% |          24      6.22%     56.74% |          23      5.96%     62.69% |          23      5.96%     68.65% |          23      5.96%     74.61% |          27      6.99%     81.61% |          24      6.22%     87.82% |          22      5.70%     93.52% |          25      6.48%    100.00%
system.ruby.L2Cache_Controller.M_I.Mem_Ack::total          386                      
system.ruby.L2Cache_Controller.IS.L1_GET_INSTR |          39     35.78%     35.78% |           0      0.00%     35.78% |           0      0.00%     35.78% |           0      0.00%     35.78% |           1      0.92%     36.70% |           0      0.00%     36.70% |           0      0.00%     36.70% |           1      0.92%     37.61% |          40     36.70%     74.31% |           3      2.75%     77.06% |           4      3.67%     80.73% |           4      3.67%     84.40% |           5      4.59%     88.99% |           4      3.67%     92.66% |           3      2.75%     95.41% |           5      4.59%    100.00%
system.ruby.L2Cache_Controller.IS.L1_GET_INSTR::total          109                      
system.ruby.L2Cache_Controller.IS.Mem_Data |           4      6.35%      6.35% |           4      6.35%     12.70% |           3      4.76%     17.46% |           2      3.17%     20.63% |           5      7.94%     28.57% |           3      4.76%     33.33% |           7     11.11%     44.44% |           6      9.52%     53.97% |           4      6.35%     60.32% |           3      4.76%     65.08% |           3      4.76%     69.84% |           3      4.76%     74.60% |           5      7.94%     82.54% |           4      6.35%     88.89% |           2      3.17%     92.06% |           5      7.94%    100.00%
system.ruby.L2Cache_Controller.IS.Mem_Data::total           63                      
system.ruby.L2Cache_Controller.IM.Mem_Data |          21      6.50%      6.50% |          20      6.19%     12.69% |          20      6.19%     18.89% |          20      6.19%     25.08% |          20      6.19%     31.27% |          20      6.19%     37.46% |          20      6.19%     43.65% |          20      6.19%     49.85% |          20      6.19%     56.04% |          20      6.19%     62.23% |          20      6.19%     68.42% |          20      6.19%     74.61% |          22      6.81%     81.42% |          20      6.19%     87.62% |          20      6.19%     93.81% |          20      6.19%    100.00%
system.ruby.L2Cache_Controller.IM.Mem_Data::total          323                      
system.ruby.L2Cache_Controller.SS_MB.Exclusive_Unblock |         414      4.76%      4.76% |         420      4.83%      9.59% |         474      5.45%     15.04% |         476      5.47%     20.51% |         532      6.12%     26.63% |         605      6.96%     33.58% |         643      7.39%     40.97% |         654      7.52%     48.49% |         641      7.37%     55.86% |         641      7.37%     63.23% |         642      7.38%     70.61% |         592      6.81%     77.42% |         546      6.28%     83.70% |         492      5.66%     89.35% |         468      5.38%     94.73% |         458      5.27%    100.00%
system.ruby.L2Cache_Controller.SS_MB.Exclusive_Unblock::total         8698                      
system.ruby.L2Cache_Controller.MT_MB.L1_GETS |           6      1.45%      1.45% |          22      5.33%      6.78% |          27      6.54%     13.32% |          14      3.39%     16.71% |          54     13.08%     29.78% |          28      6.78%     36.56% |          15      3.63%     40.19% |          21      5.08%     45.28% |          17      4.12%     49.39% |          31      7.51%     56.90% |          16      3.87%     60.77% |          23      5.57%     66.34% |          33      7.99%     74.33% |          41      9.93%     84.26% |          33      7.99%     92.25% |          32      7.75%    100.00%
system.ruby.L2Cache_Controller.MT_MB.L1_GETS::total          413                      
system.ruby.L2Cache_Controller.MT_MB.L1_PUTX_old |           3     11.11%     11.11% |           2      7.41%     18.52% |           1      3.70%     22.22% |           0      0.00%     22.22% |           2      7.41%     29.63% |           5     18.52%     48.15% |           1      3.70%     51.85% |           5     18.52%     70.37% |           1      3.70%     74.07% |           1      3.70%     77.78% |           1      3.70%     81.48% |           1      3.70%     85.19% |           1      3.70%     88.89% |           0      0.00%     88.89% |           1      3.70%     92.59% |           2      7.41%    100.00%
system.ruby.L2Cache_Controller.MT_MB.L1_PUTX_old::total           27                      
system.ruby.L2Cache_Controller.MT_MB.Exclusive_Unblock |       15319      6.41%      6.41% |       15230      6.37%     12.77% |       15116      6.32%     19.10% |       15142      6.33%     25.43% |       15379      6.43%     31.86% |       14818      6.20%     38.06% |       14836      6.20%     44.26% |       14602      6.11%     50.37% |       14417      6.03%     56.39% |       14687      6.14%     62.54% |       14281      5.97%     68.51% |       14667      6.13%     74.64% |       15080      6.31%     80.95% |       15084      6.31%     87.26% |       15187      6.35%     93.61% |       15289      6.39%    100.00%
system.ruby.L2Cache_Controller.MT_MB.Exclusive_Unblock::total       239134                      
system.ruby.L2Cache_Controller.MT_IIB.L1_GETS |           0      0.00%      0.00% |           0      0.00%      0.00% |           0      0.00%      0.00% |           0      0.00%      0.00% |           0      0.00%      0.00% |           0      0.00%      0.00% |           0      0.00%      0.00% |           1    100.00%    100.00% |           0      0.00%    100.00% |           0      0.00%    100.00% |           0      0.00%    100.00% |           0      0.00%    100.00% |           0      0.00%    100.00% |           0      0.00%    100.00% |           0      0.00%    100.00% |           0      0.00%    100.00%
system.ruby.L2Cache_Controller.MT_IIB.L1_GETS::total            1                      
system.ruby.L2Cache_Controller.MT_IIB.L1_UPGRADE |           0      0.00%      0.00% |           0      0.00%      0.00% |           0      0.00%      0.00% |           0      0.00%      0.00% |           0      0.00%      0.00% |           0      0.00%      0.00% |           0      0.00%      0.00% |           0      0.00%      0.00% |           1     50.00%     50.00% |           0      0.00%     50.00% |           0      0.00%     50.00% |           0      0.00%     50.00% |           1     50.00%    100.00% |           0      0.00%    100.00% |           0      0.00%    100.00% |           0      0.00%    100.00%
system.ruby.L2Cache_Controller.MT_IIB.L1_UPGRADE::total            2                      
system.ruby.L2Cache_Controller.MT_IIB.L1_PUTX |           0      0.00%      0.00% |           3     33.33%     33.33% |           1     11.11%     44.44% |           1     11.11%     55.56% |           0      0.00%     55.56% |           1     11.11%     66.67% |           1     11.11%     77.78% |           0      0.00%     77.78% |           0      0.00%     77.78% |           0      0.00%     77.78% |           0      0.00%     77.78% |           0      0.00%     77.78% |           1     11.11%     88.89% |           1     11.11%    100.00% |           0      0.00%    100.00% |           0      0.00%    100.00%
system.ruby.L2Cache_Controller.MT_IIB.L1_PUTX::total            9                      
system.ruby.L2Cache_Controller.MT_IIB.WB_Data |         179      3.59%      3.59% |         173      3.47%      7.07% |         215      4.32%     11.38% |         247      4.96%     16.34% |         323      6.48%     22.82% |         366      7.35%     30.17% |         416      8.35%     38.52% |         400      8.03%     46.55% |         458      9.19%     55.74% |         384      7.71%     63.45% |         402      8.07%     71.52% |         392      7.87%     79.39% |         354      7.11%     86.49% |         206      4.13%     90.63% |         270      5.42%     96.05% |         197      3.95%    100.00%
system.ruby.L2Cache_Controller.MT_IIB.WB_Data::total         4982                      
system.ruby.L2Cache_Controller.MT_IIB.WB_Data_clean |         189      5.72%      5.72% |         179      5.41%     11.13% |         203      6.14%     17.27% |         169      5.11%     22.38% |         224      6.77%     29.15% |         212      6.41%     35.56% |         210      6.35%     41.91% |         227      6.86%     48.78% |         223      6.74%     55.52% |         212      6.41%     61.93% |         237      7.17%     69.10% |         231      6.99%     76.08% |         218      6.59%     82.67% |         193      5.84%     88.51% |         195      5.90%     94.41% |         185      5.59%    100.00%
system.ruby.L2Cache_Controller.MT_IIB.WB_Data_clean::total         3307                      
system.ruby.L2Cache_Controller.MT_IIB.Unblock |         151      5.08%      5.08% |         183      6.16%     11.25% |         186      6.26%     17.51% |         200      6.73%     24.24% |         141      4.75%     28.99% |         205      6.90%     35.89% |         206      6.94%     42.83% |         215      7.24%     50.07% |         151      5.08%     55.15% |         236      7.95%     63.10% |         193      6.50%     69.60% |         149      5.02%     74.61% |         135      4.55%     79.16% |         242      8.15%     87.31% |         157      5.29%     92.59% |         220      7.41%    100.00%
system.ruby.L2Cache_Controller.MT_IIB.Unblock::total         2970                      
system.ruby.L2Cache_Controller.MT_IB.L1_GETS |           0      0.00%      0.00% |           0      0.00%      0.00% |           1     50.00%     50.00% |           1     50.00%    100.00% |           0      0.00%    100.00% |           0      0.00%    100.00% |           0      0.00%    100.00% |           0      0.00%    100.00% |           0      0.00%    100.00% |           0      0.00%    100.00% |           0      0.00%    100.00% |           0      0.00%    100.00% |           0      0.00%    100.00% |           0      0.00%    100.00% |           0      0.00%    100.00% |           0      0.00%    100.00%
system.ruby.L2Cache_Controller.MT_IB.L1_GETS::total            2                      
system.ruby.L2Cache_Controller.MT_IB.L1_PUTX |           0      0.00%      0.00% |           1     50.00%     50.00% |           0      0.00%     50.00% |           0      0.00%     50.00% |           0      0.00%     50.00% |           0      0.00%     50.00% |           0      0.00%     50.00% |           0      0.00%     50.00% |           0      0.00%     50.00% |           0      0.00%     50.00% |           1     50.00%    100.00% |           0      0.00%    100.00% |           0      0.00%    100.00% |           0      0.00%    100.00% |           0      0.00%    100.00% |           0      0.00%    100.00%
system.ruby.L2Cache_Controller.MT_IB.L1_PUTX::total            2                      
system.ruby.L2Cache_Controller.MT_IB.WB_Data |         136      4.72%      4.72% |         178      6.17%     10.89% |         184      6.38%     17.27% |         197      6.83%     24.11% |         136      4.72%     28.82% |         197      6.83%     35.66% |         194      6.73%     42.39% |         208      7.21%     49.60% |         150      5.20%     54.80% |         231      8.01%     62.82% |         190      6.59%     69.41% |         148      5.13%     74.54% |         135      4.68%     79.22% |         237      8.22%     87.44% |         154      5.34%     92.79% |         208      7.21%    100.00%
system.ruby.L2Cache_Controller.MT_IB.WB_Data::total         2883                      
system.ruby.L2Cache_Controller.MT_IB.WB_Data_clean |          15     17.24%     17.24% |           5      5.75%     22.99% |           2      2.30%     25.29% |           3      3.45%     28.74% |           5      5.75%     34.48% |           8      9.20%     43.68% |          12     13.79%     57.47% |           7      8.05%     65.52% |           1      1.15%     66.67% |           5      5.75%     72.41% |           3      3.45%     75.86% |           1      1.15%     77.01% |           0      0.00%     77.01% |           5      5.75%     82.76% |           3      3.45%     86.21% |          12     13.79%    100.00%
system.ruby.L2Cache_Controller.MT_IB.WB_Data_clean::total           87                      
system.ruby.L2Cache_Controller.MT_SB.Unblock |         368      4.44%      4.44% |         352      4.25%      8.69% |         418      5.04%     13.73% |         416      5.02%     18.75% |         547      6.60%     25.35% |         578      6.97%     32.32% |         626      7.55%     39.87% |         627      7.56%     47.44% |         681      8.22%     55.65% |         596      7.19%     62.84% |         639      7.71%     70.55% |         623      7.52%     78.07% |         572      6.90%     84.97% |         399      4.81%     89.78% |         465      5.61%     95.39% |         382      4.61%    100.00%
system.ruby.L2Cache_Controller.MT_SB.Unblock::total         8289                      
system.ruby.Directory_Controller.Fetch            386      0.00%      0.00%
system.ruby.Directory_Controller.Data             381      0.00%      0.00%
system.ruby.Directory_Controller.Memory_Data          386      0.00%      0.00%
system.ruby.Directory_Controller.Memory_Ack          381      0.00%      0.00%
system.ruby.Directory_Controller.CleanReplacement            5      0.00%      0.00%
system.ruby.Directory_Controller.I.Fetch          386      0.00%      0.00%
system.ruby.Directory_Controller.M.Data           381      0.00%      0.00%
system.ruby.Directory_Controller.M.CleanReplacement            5      0.00%      0.00%
system.ruby.Directory_Controller.IM.Memory_Data          386      0.00%      0.00%
system.ruby.Directory_Controller.MI.Memory_Ack          381      0.00%      0.00%

---------- End Simulation Statistics   ----------
